13

C          6.48400       -4.97700       26.59700
S          8.14600       -4.38900       26.17200
O          9.13000       -5.47600       26.18300
O          8.69600       -3.54600       27.22000
N          8.11400       -3.56200       24.68200
C          9.36800       -3.05800       24.18500
C          9.26700       -1.77600       23.36900
C         10.66400       -1.17700       23.41400
C         10.97400       -0.13400       24.27700
C         12.26600        0.36700       24.30000
C         13.24300       -0.18800       23.48900
C         12.92900       -1.23900       22.63700
C         11.63900       -1.73000       22.60800
