15

C          9.98100       -0.41700       24.91600
N         11.12900       -0.36800       24.04200
C         11.76200       -1.59900       23.66900
C         12.76900       -1.49200       22.56300
C         13.72400       -0.34200       22.80600
C         12.95000        0.99200       23.04300
C         13.50400        2.22200       22.63700
C         12.79700        3.40900       22.84300
C         11.52800        3.34600       23.45300
C         10.97600        2.13300       23.85000
C         11.68800        0.93700       23.63800
S         10.58200        4.84800       23.75400
O         10.07400        4.77000       25.11900
O          9.33700        4.88800       22.98400
N         11.55300        6.22000       23.48400
