11

C          8.45500        0.00100       27.42700
C          9.00900       -0.54900       26.13200
N         10.14400        0.25400       25.71600
C         10.96900       -0.18900       24.61900
C         10.61300       -1.32200       23.89800
C         11.39900       -1.73700       22.84200
C         12.53100       -1.00500       22.53100
C         13.42200       -1.44700       21.37800
N         14.10200       -1.75200       20.52100
C         12.82900        0.12000       23.29700
N         12.05100        0.49900       24.30900
