13

O          9.26200       -4.21700       27.81900
C          9.14000       -4.81600       26.55200
C         10.38000       -4.66700       25.83300
C         10.61900       -3.26000       25.27600
N          9.51000       -2.68500       24.55300
C          9.66800       -1.49800       24.25000
C         11.04500       -1.14200       23.67200
C         11.95100       -0.03200       24.20000
C         13.16300        0.01700       23.43300
S         13.13000       -1.11500       22.27900
C         11.68700       -1.78600       22.56600
C          8.29600       -2.83100       25.33500
C          8.04000       -4.26600       25.80400
