16

O          9.46600        1.09000       21.01200
C          8.91000        0.30000       21.70700
C          9.45500       -0.17200       23.04200
C         10.97000       -0.10100       23.09700
C         11.60300       -1.06800       22.10000
C         12.85800       -1.73900       22.64600
C         13.65500       -0.89100       23.62900
C         12.82100       -0.18500       24.69300
C         11.32900       -0.42900       24.53200
N          7.65500       -0.26300       21.33800
C          7.04200        0.16800       20.12300
C          5.80000        0.77400       20.26700
C          5.18500        1.21400       19.10300
C          5.84600        1.03100       17.89500
N          7.03900        0.45800       17.82800
C          7.66600        0.02500       18.90000
