19

N          5.42400       -5.49100       24.35300
C          2.87400       -1.91400       25.81900
O          4.00100       -6.72900       25.93300
C          1.53400       -2.20200       25.73400
N          6.43700       -5.07300       21.75700
O          5.67900       -5.11900       26.77500
C          1.16200       -3.53000       25.67800
O          5.72000       -4.45000       19.70300
C          2.12100       -4.53200       25.70100
C          3.46500       -4.20100       25.78400
C          3.86000       -2.87500       25.84400
C          6.46200       -4.47400       24.12100
C          7.29200       -4.86700       22.92700
C          5.41300       -6.08700       22.00600
C          4.56000       -5.67500       23.17600
C          6.57200       -4.41400       20.58200
C          7.83900       -3.62800       20.37100
F          3.25300       -0.61900       25.87500
S          4.68400       -5.47900       25.81500
