17

N          8.35300       -2.11200       23.14300
C         11.16100        2.25300       24.63300
O          5.69700       -4.12100       19.67700
C         11.39300        0.86600       24.10700
N          6.70200       -2.47000       20.84900
C         12.57100        0.53100       23.45700
C         12.77800       -0.74400       22.95900
C         11.80300       -1.71100       23.11600
C         10.62600       -1.41400       23.78300
C          9.53900       -2.44400       23.93700
C          7.49300       -3.28700       22.99100
C          6.27700       -2.96200       22.15700
C          7.51600       -1.26600       20.99200
C          8.73300       -1.57900       21.83000
C          6.40000       -3.11600       19.70000
C          7.01600       -2.60600       18.42700
C         10.42900       -0.11900       24.25200
