18

N          7.08000       -4.54300       21.28500
C          7.33500       -2.97400       19.39400
O          5.55000       -4.51200       19.65000
C          6.58300       -4.06200       20.12800
N          9.96400       -2.34400       23.69500
C          6.25200       -5.41000       22.13200
C          7.09800       -6.32600       22.99400
C          7.96100       -5.51000       23.96000
C          8.33200       -4.15700       23.34400
C          8.41000       -4.29400       21.83500
C          9.60200       -3.56700       23.91600
C         11.18200       -2.07100       24.31500
C         11.87000       -0.86400       24.26200
C         13.07200       -0.76200       24.92900
C         13.60100       -1.82800       25.64400
C         12.93300       -3.02800       25.71800
C         11.71900       -3.13900       25.04300
S         10.65800       -4.50800       24.94300
