16

O          5.82000       -4.28500       19.71500
C          6.60500       -3.37900       19.96300
C          7.24900       -2.61800       18.83600
N          6.93200       -3.03200       21.22800
C          6.37800       -3.73300       22.39500
C          7.48800       -4.34000       23.22000
O          8.67900       -3.54000       23.18800
C          8.40200       -2.16200       22.98700
C          9.68400       -1.40200       23.22700
C          9.81800       -0.63900       24.37400
C         10.97100        0.07400       24.62600
C         11.97900        0.00700       23.71600
C         11.90200       -0.73000       22.56900
C         10.74200       -1.44300       22.33100
C          7.80900       -1.92600       21.60400
F         13.11300        0.71000       23.97200
