19

N          5.51200       -5.26500       24.37700
C          4.24500       -2.52100       26.05400
O          5.82000       -5.02800       26.80100
C          3.42200       -1.41900       26.10300
N          6.56100       -4.97400       21.78700
O          3.94400       -6.38100       25.92700
C          2.05400       -1.59700       26.00200
O          5.83500       -4.57500       19.68800
C          1.51600       -2.85600       25.85100
C          2.34000       -3.96400       25.79800
C          3.71700       -3.80600       25.89600
C          6.47100       -4.19000       24.08200
C          7.36900       -4.63300       22.95900
C          5.59900       -6.03300       22.08400
C          4.68900       -5.60700       23.20600
C          6.66100       -4.39000       20.57100
C          7.83900       -3.48700       20.32700
F          5.58000       -2.33500       26.15600
S          4.77700       -5.22100       25.84300
