18

N          6.86400       -4.27600       21.93800
C          7.78400       -4.73200       19.85800
O          5.47000       -4.20600       20.14200
C          6.56600       -4.37300       20.64400
N          2.07200       -6.61700       23.93900
O          3.77200       -7.81600       24.81300
C          5.98700       -4.41400       23.02500
C          5.97800       -3.40100       23.97700
C          5.11600       -3.48600       25.04700
C          4.26500       -4.57100       25.17500
C          4.26900       -5.58800       24.22800
C          5.12900       -5.50400       23.13300
C          3.34000       -6.76000       24.35400
C          1.56500       -5.41500       23.26600
C          0.47300       -4.76300       24.08400
C         -0.08000       -7.23700       24.94600
C          1.06700       -7.67900       24.06700
S         -0.96600       -5.82500       24.27100
