19

N          8.18200       -3.22100       24.70500
C          3.02800       -7.58400       25.20300
O          9.29700       -5.41000       25.00500
C          4.33400       -6.84000       25.30400
N          7.20900       -2.96800       22.05500
O          8.44600       -4.17000       26.96100
C          5.15000       -6.67600       24.19500
O          5.68200       -2.57300       20.43200
C          6.35400       -6.00200       24.27600
C          6.75200       -5.46400       25.48900
C          5.95400       -5.61400       26.61300
C          4.75700       -6.29800       26.50700
C          9.11300       -3.06000       23.57700
C          8.48900       -3.62100       22.32800
C          6.26100       -3.10700       23.16100
C          6.85700       -2.61500       24.45600
C          6.72200       -3.09700       20.80500
C          7.47700       -4.00900       19.89200
S          8.28900       -4.59400       25.60400
