18

N          8.68000       -1.88500       23.13100
C         12.60900       -1.93000       22.23000
O          5.85100       -4.35800       19.64200
C         12.05500       -0.83800       23.10800
N          6.60300       -2.81600       21.09000
C         12.77800        0.33700       23.24200
C         12.32800        1.37200       24.03700
C         11.13800        1.24800       24.71400
C         10.40400        0.08500       24.60000
C         10.85000       -0.98000       23.81900
C          9.99000       -2.21600       23.70400
C          8.79500       -1.41000       21.74300
C          7.61800       -0.58000       21.31100
C          6.35100       -1.39300       21.35400
C          7.08400       -3.65700       22.19300
C          7.65300       -2.90900       23.39800
C          6.47000       -3.31800       19.85000
C          7.16000       -2.64400       18.67300
