11

N          9.42300        5.14900       22.98600
C         12.50800        1.09600       23.15000
O         10.26200        5.21400       25.29100
C         11.26800        1.16700       23.79000
O         11.62900        6.16000       23.49300
C         10.72700        2.44000       24.04900
C         11.40000        3.62600       23.68000
C         12.64600        3.49200       23.05000
C         13.20600        2.24300       22.78600
Br        13.30800       -0.65700       22.69800
S         10.73900        5.15100       23.96500
