15

N          9.93600        1.51200       21.35700
C          9.79500        0.54800       21.96800
O          7.32800       -5.81700       25.43900
C          9.62500       -0.60200       22.76100
N         10.23800       -1.74700       22.34000
C          8.92000       -0.49700       23.94800
N          9.56300       -3.99300       25.26300
C          8.84700       -1.60500       24.78700
C          9.48500       -2.81300       24.43300
C         10.15700       -2.80500       23.16600
C          9.92200       -5.31400       24.67600
C          8.93400       -5.82200       23.62000
C          7.46800       -5.60200       24.03900
C          7.31800       -4.68700       26.27700
C          8.73500       -4.09600       26.49700
