17

O          5.73700       -3.95200       20.04800
C          6.67100       -4.20700       20.79900
C          8.09000       -3.90800       20.38100
N          6.47100       -4.77900       22.03200
C          7.51600       -4.85600       23.02000
C          8.51300       -5.82600       22.93600
C          9.48700       -5.90400       23.91800
C          9.46600       -5.04600       24.99600
C          8.47100       -4.10300       25.09900
C          7.49500       -4.00100       24.12000
C          5.15800       -5.32000       22.36700
C          5.07900       -6.80400       22.06600
C          4.05800       -7.38000       22.67600
S          3.77800       -6.61200       24.21900
O          4.35000       -7.40000       25.27800
O          2.39700       -6.23100       24.34700
C          4.79800       -5.19600       23.86000
