16

N          6.87200       -2.69300       20.94000
C          7.13900       -2.50500       18.49200
O          5.79500       -4.13300       19.58600
Cl         7.76600       -6.00100       28.43800
C          6.53700       -3.16300       19.71900
N          8.47500       -2.59500       23.31500
C          6.43600       -3.33700       22.17500
C          7.64600       -3.75500       22.97500
C          9.64000       -3.00100       24.12200
C          9.34200       -4.08900       25.10800
C          9.79700       -5.40200       25.07600
C          9.48100       -6.12900       26.24800
C          8.58700       -5.42700       27.04400
C          8.89900       -1.93000       22.07800
C          7.71600       -1.52900       21.22300
S          8.32500       -3.82600       26.48200
