15

N          7.19700       -3.78700       21.27600
C          7.78300       -4.68700       27.62500
O          7.62000       -4.76200       26.20900
C          6.51200       -5.37700       25.71400
N          7.16100       -4.55300       23.47500
O          5.67300       -4.21000       19.65700
C          5.59500       -6.10400       26.47000
C          4.49200       -6.69700       25.85000
C          4.28600       -6.58000       24.49200
C          5.21100       -5.85300       23.75200
C          6.63700       -4.54700       22.28200
C          6.69700       -3.64700       20.01000
C          7.50100       -2.75700       19.09400
C          6.33000       -5.24500       24.34000
S          5.21600       -5.53600       22.03700
