13

Cl        13.89400       -1.87800       21.31400
C          7.82200       -1.24700       23.55300
C          8.98500       -2.02400       22.94200
N          8.62700       -2.49000       21.58900
C          8.27400       -1.70800       20.55900
O          8.20900       -0.47600       20.62600
C          7.92900       -2.37800       19.22700
C         10.31600       -1.28900       22.95900
C         10.53800       -0.14500       23.71600
C         11.77900        0.46900       23.71400
C         12.82300       -0.05300       22.98600
C         12.60200       -1.19200       22.25300
C         11.37400       -1.80800       22.23800
