16

N          6.74000       -3.65400       21.82100
C          8.32800       -3.28300       20.10800
O          6.10300       -4.04300       19.66400
C          6.93300       -3.70500       20.49200
N          3.69700       -3.43700       25.52300
O          5.42600       -1.99000       25.96000
C          5.79000       -4.32900       22.61700
C          5.44200       -5.66400       22.42400
C          4.51200       -6.24900       23.26400
C          3.92800       -5.52800       24.29200
C          4.28700       -4.20100       24.47900
C          5.21700       -3.59300       23.64400
C          2.31000       -3.64700       25.95700
C          2.01900       -2.44900       26.83600
C          3.38700       -1.98300       27.29900
C          4.32200       -2.43400       26.21100
