15

N          7.05300       -2.31800       20.81700
C          7.31800       -2.43400       18.36100
O          5.81800       -3.76900       19.63600
C          6.66700       -2.88500       19.65600
N          8.78100       -2.07900       23.09100
C          6.63800       -2.81300       22.12700
C          7.85100       -3.20200       22.93900
C          9.95700       -2.48800       23.86200
C         11.03800       -1.43800       23.85500
C         12.13700       -1.36900       22.94700
C         12.84700       -0.22400       23.03700
C         11.07400       -0.35300       24.72300
C          9.16300       -1.58800       21.76100
C          7.95200       -1.17900       20.95800
S         12.21500        0.79900       24.22300
