19

O          6.12100       -4.19100       20.00600
C          6.85500       -3.21400       20.07400
C          7.35700       -2.58900       18.80300
N          7.22800       -2.66600       21.26200
C          6.54000       -3.03700       22.49900
C          7.52300       -3.57600       23.50100
C          7.06300       -4.40600       24.52500
C          7.93900       -4.91900       25.46400
C          9.28400       -4.61300       25.39100
C          9.75400       -3.79100       24.38000
C          8.88200       -3.25300       23.42500
C          9.42700       -2.36200       22.31400
C         10.39700       -1.30600       22.80200
C         11.68000       -1.21700       22.27500
C         12.56700       -0.25300       22.72400
C         12.18400        0.64100       23.69800
C         10.91700        0.57100       24.22900
C         10.02800       -0.39600       23.78500
C          8.31600       -1.71300       21.49300
