15

N          6.93100       -2.51900       20.84900
C          7.19200       -2.49000       18.40000
O          5.90500       -4.08800       19.61900
C          6.60400       -3.07900       19.66800
N          8.77500       -2.24800       23.00200
C          7.64900       -1.26400       21.04900
C          8.96800       -1.56500       21.71900
C         10.08100       -2.60400       23.58000
C         11.04900       -1.46900       23.61600
C         12.13900       -1.22700       22.77000
C         12.82800       -0.04700       23.14700
C         12.15300        0.67500       24.06800
C          7.98800       -3.46900       22.80000
C          6.67100       -3.16900       22.12500
S         10.92200       -0.23600       24.80400
