17

N          5.64800       -3.67400       23.73400
C          1.42400       -2.35600       28.30800
O          2.84500       -2.23500       28.30800
C          3.52400       -2.60100       27.17700
N          6.79000       -4.28300       21.26100
O          5.67900       -4.97400       19.42600
C          3.01500       -3.55500       26.30500
C          3.72500       -3.90200       25.17100
C          4.96100       -3.32200       24.88400
C          5.45400       -2.35900       25.76900
C          4.74800       -2.00600       26.90500
C          5.36700       -4.97400       23.09600
C          6.40100       -5.41600       22.08600
C          7.51000       -3.31900       22.08100
C          6.56800       -2.71100       23.09600
C          6.43200       -4.17200       19.96100
C          6.98600       -3.02400       19.15400
